27
react
 C                -12.95523700    5.77684100   -6.81084000
 H                -13.55380800    6.57753000   -6.36669000
 H                -13.46965900    5.38841400   -7.69484900
 C                -12.72850800    4.62807600   -5.80619500
 O                -12.26523500    3.54750400   -6.25402400
 O                -12.98172600    4.85420900   -4.58428200
 H                -11.95869900    6.18105300   -7.09858800
 C                -13.83253400    5.70778600   -0.88519600
 H                -14.51597781    5.68511119   -0.06221944
 H                -14.28733492    5.25090926   -1.73919821
 O                -12.63239500    4.98487900   -0.53439200
 P                -12.74600100    3.42812500   -0.13640100
 O                -13.64167100    2.66679200   -1.09321300
 O                -11.37882700    2.90889400    0.19287200
 O                -13.54785500    3.57860900    1.32472900
 P                -14.98891000    2.98473200    1.79269900
 O                -15.24259300    1.66340500    1.07808300
 O                -14.99193400    3.01410400    3.30045900
 O                -16.02459300    4.10371600    1.23758100
 P                -17.34960400    3.68940800    0.25680000
 O                -18.21444200    2.79835000    1.18183800
 O                -16.76272800    2.94967300   -0.95977000
 O                -17.93701300    5.05684600   -0.10440800
 O                -11.50408000    2.81816600   -3.29145900
 H                -12.03332000    3.53973300   -3.69565000
 H                -12.05635000    2.47255400   -2.58099100
 H                -13.58340655    6.72289976   -1.11406183
