27
TS
 C                -12.87562302    5.64716271   -6.65450284
 H                -13.48716864    6.41658095   -6.18101929
 H                -13.42550930    5.22504693   -7.49879496
 C                -12.52361379    4.53398505   -5.64826766
 O                -12.01595360    3.47384236   -6.06529098
 O                -12.73865864    4.78878338   -4.40666465
 H                -11.92455957    6.10410634   -7.01235766
 C                -13.83351764    5.73897006   -0.94306369
 H                -14.37916258    5.64081490   -0.02789312
 H                -14.41681908    5.34694573   -1.74989474
 O                -12.59235172    5.00518499   -0.84498083
 P                -12.50886412    3.40905991   -0.88709489
 O                -13.75480923    2.66321196   -1.28798581
 O                -11.33141434    2.87070482   -0.13450873
 O                -13.53417152    3.65114171    1.28117026
 P                -14.85916342    3.03444552    1.74589014
 O                -15.20782722    1.68379025    1.05680341
 O                -14.99395473    3.01285903    3.26704724
 O                -16.02825150    4.11337158    1.19902049
 P                -17.32770663    3.70278482    0.27537569
 O                -18.23350048    2.82195281    1.18239079
 O                -16.81245108    2.93796746   -0.97219202
 O                -17.93725925    5.06465253   -0.12633574
 O                -11.74322770    3.38278056   -2.55944909
 H                -12.19232655    3.95060465   -3.37104375
 H                -11.74125721    2.44231665   -2.84575749
 H                -13.62351897    6.77243721   -1.12402284
