132
dUTPase reactant
 C           -8.4229901646        5.5374618856       -2.9757534319
 O           -9.3564467626        5.7826540565       -2.2100155439
 H           -7.7450681635        4.6938785604       -2.7752565121
 N           -8.1528113528        6.2200547199       -4.1088171669
 H           -7.2626289944        6.0184153086       -4.5780901869
 C           -8.9777608591        7.3031645622       -4.6376067727
 H           -9.7964883884        7.4594318176       -3.9351050444
 H           -8.4301494014        8.2511340657       -4.7794892330
 H           -9.3929767465        6.9531012578       -5.5878106914
 C          -12.9640383602        5.7945066378       -6.8311555778
 H          -13.5577715788        6.5956487646       -6.3826533359
 H          -13.4819311166        5.4082209605       -7.7143993757
 C          -12.7351943882        4.6464531982       -5.8313852867
 O          -12.2526427486        3.5748747255       -6.2837954044
 O          -12.9971691265        4.8611285958       -4.6113037567
 H          -11.9661290905        6.1937444957       -7.1188521611
CA          -15.2779581511        1.4662272397       -1.0864322733
 C          -13.8340975124        5.7237743954       -0.8236380985
 H          -14.5285680645        5.7168547900        0.0228711565
 H          -14.3146605561        5.2303112415       -1.6729791995
 O          -12.6326484916        5.0072397883       -0.4609157151
 P          -12.7269974504        3.4480243502       -0.0669676411
 O          -13.6050838947        2.6847570911       -1.0442452578
 O          -11.3576276688        2.9362725229        0.2618502129
 O          -13.5421464812        3.5724195521        1.3792856146
 P          -14.9884634998        2.9661813016        1.8164109992
 O          -15.2253942518        1.6541875423        1.0790095407
 O          -15.0035259901        2.9820106380        3.3236050139
 O          -16.0121953679        4.0904504875        1.2556532776
 P          -17.3218085462        3.6851722592        0.2486005748
 O          -18.1985069879        2.7887516503        1.1557340979
 O          -16.7166575682        2.9557835318       -0.9658488697
 O          -17.9025854519        5.0569912212       -0.1076719942
 C          -13.4865870718        7.1418107110       -1.2124010698
 H          -14.4176296291        7.6264285527       -1.5417754176
 O          -12.9644195927        7.8580470197       -0.0672791441
 C          -11.9921619678        8.8111472161       -0.4757547086
 H          -12.2967120070        9.8118717177       -0.1712283672
 N          -10.7199499541        8.5549431918        0.2474346527
 C          -10.1833291382        7.2902818513        0.2054116643
 H          -10.8064105207        6.5290013714       -0.2424931617
 C          -10.0379326111        9.6117112132        0.8414363556
 O          -10.4654043457       10.7690046826        0.8813426532
 N           -8.8091966641        9.2708675684        1.3801970388
 H           -8.3822800389        9.9885437129        1.9861420802
 C           -8.1879462802        8.0270105232        1.3286000101
 O           -7.0511518970        7.8725364720        1.8213556852
 C           -8.9548982113        7.0004637494        0.6929291623
 H           -8.5696857318        5.9930074751        0.6277128377
 C          -11.8450219210        8.6633929718       -1.9982796937
 H          -10.8133530916        8.7733369328       -2.3315068213
 H          -12.4486275520        9.4218188988       -2.4885857034
 C          -12.4579274026        7.3035263115       -2.3436110728
 H          -11.7084161663        6.5061110828       -2.3085978679
 O          -13.0761296288        7.3356822703       -3.6137797362
 H          -13.0590815705        6.4173705455       -4.0024804852
 O           -9.4633032054        8.1548099739        4.8010065532
 H          -10.0427890317        8.8951064630        4.5111031517
 H           -8.5251279860        8.3964830736        4.6335356366
 O          -15.3839015009        1.1598524497        5.2472007604
 H          -15.3831211354        0.2865440999        4.8280913790
 H          -15.3125182805        1.8007844250        4.4982105449
 O           -9.7591584216        6.4139842391        6.8887658938
 H          -10.5615622188        5.8841998059        6.7024840409
 H           -9.6673276200        7.0503902616        6.1367390827
 O          -11.6029633697        2.7755400865       -3.2142353023
 H          -12.0016447309        3.5211873287       -3.7129426181
 H          -12.2453480703        2.6035904233       -2.5050032182
 O          -15.7635985065       -1.0239626885       -4.3451397004
 H          -14.9974244417       -1.2579398934       -4.9192345439
 H          -15.6425125791       -1.5715331002       -3.5229272009
 O          -15.8727477462       12.0039019635        1.2175101289
 H          -15.0723235338       12.1227962151        0.6587673603
 H          -16.6050948200       11.9397081155        0.5674848082
 O          -12.7319488587        1.0974532508       -5.0514207237
 H          -12.1405046755        1.2011405680       -4.2752859749
 H          -12.6103691477        1.9729195198       -5.4915791865
 O          -16.9839045355        0.1682044413       -1.0656414907
 H          -17.8684799655        0.5202388707       -0.8519699848
 H          -17.0664081376       -0.8198814116       -1.1390896304
 O          -15.1428814377        1.4029683158       -3.2033564964
 H          -14.3118032014        1.5950301095       -3.6923847554
 H          -15.4623414608        0.5803124642       -3.6526614726
 O          -14.1765854352       -0.3336194458       -1.0279268706
 H          -13.3491206711       -0.2357152169       -1.5611030318
 H          -14.6488040650       -1.1064118852       -1.4446870226
 C          -11.3879390162        5.5633793799        3.5241122485
 H          -11.1699559416        6.4519988042        4.1165445550
 H          -10.5934876960        5.4593051136        2.7756467598
 O          -12.6576244416        5.7557033838        2.9151362721
 H          -12.8475774974        5.0082566351        2.3225660439
 H          -11.3638546036        4.6544318043        4.1822951579
 C          -10.8895972979       -0.4592815451       -1.5256581889
 O          -11.7898103242       -0.2274086591       -2.3508393082
 H          -10.4900365785       -1.4884087396       -1.4265675427
 N          -10.3695280506        0.4501231775       -0.6951602857
 H          -10.7592558137        1.3968371807       -0.6297622816
 H           -9.7401297209        0.1809188794        0.0590063314
 C          -16.2772048138        7.2099650814       -5.1494341114
 H          -15.7389050115        7.3244692634       -6.0930110510
 H          -15.6195870386        7.5465384914       -4.3410285463
 N          -16.6100988108        5.7917060360       -4.9938955719
 H          -16.3713909954        5.1492160504       -5.7799739631
 C          -16.8360179283        5.2120100548       -3.8028598735
 N          -16.8839520974        5.9272766832       -2.6662037313
 H          -17.2289090386        5.4926051554       -1.8035693956
 H          -16.9494029614        6.9473100034       -2.6679668187
 N          -17.0366082491        3.8909747802       -3.7314890677
 H          -16.9196294331        3.4384351619       -2.8229747818
 H          -16.9051938101        3.3072196718       -4.5882034590
 H          -17.2021254023        7.8223371694       -5.1772180384
 N          -13.9540416841        9.9995240849        3.6017773335
 H          -14.7600185059       10.4265418796        3.1566716851
 C          -13.9765435402        9.0301427679        4.5865680631
 H          -14.8680171323        8.4917993306        4.8925316123
 C          -12.6504225793       10.3360679226        3.3917988454
 H          -12.3390932108       11.0663359131        2.6573698963
 N          -11.8434323062        9.6385356064        4.1733559783
 C          -12.6649129612        8.8263825599        4.9253602281
 H          -12.2632654759        8.1449098859        5.6618768223
 C          -20.6193529228        6.8255034969        0.8805561802
 H          -21.5838255681        7.3159978584        0.7195049826
 H          -19.8913815642        7.5802258712        1.2043023142
 O          -20.2398498457        6.2280284595       -0.3584180301
 H          -19.3595960585        5.7534948169       -0.2564528891
 H          -20.7319893136        6.0764535451        1.7123650673
 C          -20.7794449229        1.6226160447       -0.5405438470
 H          -21.3853333864        0.8559118578       -1.0307967979
 H          -20.4610587050        2.3457551457       -1.3030808571
 O          -19.6574941471        0.9732734429        0.0516409048
 H          -19.0760558936        1.6824200092        0.4932026010
 H          -21.4083165980        2.1702672440        0.2108938131
