27
TS
 P                  7.98500000    1.91400000  -13.99800000
 P                  6.92700000    2.64000000  -11.32800000
 P                  6.11700000   -0.03000000   -8.85600000
 C                  6.06400000    1.66300000  -15.80500000
 O                  7.31200000    2.26000000  -15.45300000
 O                  9.36900000    2.51200000  -14.04400000
 O                  6.61400000    4.10600000  -10.95900000
 O                  5.94200000    1.23300000   -8.03300000
 O                  7.84200000    0.39900000  -13.73900000
 O                  8.35500000    2.20000000  -10.96900000
 O                  7.51800000   -0.37500000   -9.36200000
 O                  6.95500000    2.69200000  -13.03900000
 O                  5.83000000    1.65000000  -10.94000000
 O                  4.92800000   -0.66700000   -9.53000000
 H                  5.81800000    1.92500000  -16.85000000
 H                  6.12300000    0.57200000  -15.71200000
 H                  5.27400000    2.02500000  -15.13600000
 C                  1.58600000   -2.24400000   -5.97000000
 C                  2.77600000   -1.87400000   -6.82500000
 O                  3.93200000   -2.20200000   -6.45900000
 H                  1.78500000   -1.99300000   -4.90500000
 H                  0.66400000   -1.76200000   -6.30100000
 H                  1.44800000   -3.33200000   -6.03600000
 O                  6.15500000   -1.25300000   -7.29100000
 H                  5.24800000   -1.65500000   -7.03600000
 H                  6.86200000   -1.91000000   -7.08200000
 O                  2.56496588   -1.20977741   -7.92393341
