109
RNase H TS
 C           40.4144134398       14.8857245203        8.4876204567
 H           41.2209829279       15.3041970650        9.0936218966
 H           40.8619599173       14.1465174938        7.8108487187
 C           39.4306134016       14.1243050875        9.3830740644
 O           38.2868543286       13.7584565352        8.9491855888
 O           39.8810875393       13.8641474549       10.5282730848
 H           39.9347712744       15.6871909901        7.8756450262
 C           28.1741754318       16.8967283083       10.6891462915
 H           27.1788713926       16.5910392055       10.3493448009
 H           28.1206273865       17.0916462347       11.7637380807
 H           28.4640435697       17.8288636002       10.1535767460
 C           29.1717726313       15.7985357966       10.3769725750
 O           29.2835995593       15.3136193265        9.2292877710
 N           29.9614711859       15.3983179753       11.3931543693
 H           30.7396164908       14.7777449287       11.2064616087
 H           29.8845191872       15.8053974522       12.3353013890
 C           33.7425229504       15.8842610421        7.9986692457
 H           33.7134887665       16.0355993372        6.9148294631
 H           32.9033743738       15.2430063025        8.2751612107
 C           35.0744924657       15.2765249864        8.3681818847
 O           35.1058303565       14.2815325292        9.2996776404
 O           36.1345304573       15.6191247321        7.8752596245
 H           33.6199211055       16.8662339039        8.5021559138
 C           36.7580796266        9.2124511605        7.2083063545
 H           37.6377200677        8.5832987715        7.0563920557
 H           36.0018106247        8.6008476801        7.7174050052
 C           37.1343146691       10.3948452315        8.1141214872
 O           38.2075087347       10.2853035870        8.7719463687
 O           36.3317540838       11.3740173565        8.2296172293
 H           36.3681836225        9.5069261126        6.2039862722
 N           41.0068890232        8.3141203816       14.8445090464
 H           41.8732577061        7.9533373374       15.2943280196
 C           40.0429944515        7.5058262671       14.2835137701
 H           40.1965196802        6.4508763397       14.0828322594
 C           40.5409692209        9.5759009167       14.8750017041
 H           41.0957604856       10.4045706962       15.2912161372
 N           39.3177664554        9.6293437503       14.3317249838
 C           39.0036109349        8.3334029220       13.9565354402
 H           38.0476002249        8.0954453838       13.5192707628
 C           43.5256052494       12.1792794465       12.8626074218
 H           43.4233430230       12.1154081399       13.9499593164
 H           44.3121077229       11.5002455703       12.5240426771
 C           42.1705835746       11.8226576874       12.2753658674
 O           41.1535243138       12.3336614945       12.8497886975
 O           42.1103524407       11.0592458844       11.2683207718
 H           43.7780397241       13.2249300735       12.5611092676
 C           33.3028695721       10.7474411342        9.7849165260
 H           33.6179254994       11.2895071966        8.8826631648
 O           31.8690843117       10.7029759394        9.8416963846
 C           31.3612082750       11.6160637807       10.8479962494
 H           30.5825734472       12.2104302409       10.3635991649
 H           33.7212347385        9.7176376801        9.7424466370
 H           30.9037391029       11.0844642192       11.6849208646
 C           32.5653965942       12.4800983526       11.2463028512
 H           32.5212470646       12.8797490866       12.2638932148
 O           32.7151642752       13.6076721075       10.3522833118
 H           34.2350597906       13.9669396142        9.7422831694
 C           33.7675648451       11.5265500923       11.0301025569
 H           33.8206937237       10.8502921905       11.8957893908
 O           34.9896818946       12.1759571048       10.8880966695
 P           36.4536277973       11.7771922086       12.5197835100
 O           37.3563182035       12.5114686918       11.4990653578
 O           36.1158315500       10.3271817404       12.6047900421
 O           35.6345379899       12.7666076742       13.4769012517
 C           35.4827175288       14.1791912914       13.1397972707
 H           34.9360409680       14.2603189064       12.2003173833
 H           36.4715215438       14.6302611156       13.0233151935
 C           34.7313430700       14.8751472398       14.2501668263
 H           34.8771898384       15.9563439381       14.1077589641
 O           33.3350867080       14.5714834119       14.2168882849
 C           32.8120959338       14.5058520134       15.5666322104
 H           31.9651990056       15.1932538468       15.6434813849
 H           32.4783208119       13.5015595133       15.8063937382
 C           33.9661363146       14.9716599729       16.4891592876
 H           33.9106897627       14.5071139299       17.4800365930
 O           34.0276638996       16.3847707782       16.5997527959
 H           33.7211048476       16.6880809042       17.4822718716
 C           35.1676818969       14.4880779159       15.6629299840
 H           35.2366479338       13.3991869587       15.7290362066
 O           36.4402874215       15.0649257932       15.9748179951
 P           37.7024534641       14.1780708569       16.5019771751
 O           38.9447194899       14.6551590698       15.7576057849
 O           37.3876311012       12.6799897395       16.3667227879
 O           37.8018244647       14.4884390241       18.0666337487
 C           37.6261911467       15.7905091976       18.7160774177
 H           37.2043221009       16.5167570752       18.0151458064
 H           38.6039533735       16.1300635439       19.0558685014
 H           36.9441903651       15.6583711269       19.5723007458
 O           37.9364093561       11.7419807416       13.7423464136
 H           37.7156675008       12.1510822977       14.6287695934
 H           38.4931153186       10.8111758474       13.9477883273
 O           39.0657224448       14.4885330431       13.1198098067
 H           38.7089112543       15.2687388505       12.6359541296
 H           38.9890533752       14.6581539469       14.0957960286
 O           39.4433109140       10.8511668948       11.1560964246
 H           38.9720445786       10.7337367574       10.2961863633
 H           40.4117189361       10.7276307799       11.0182451078
 O           31.1275380169       13.6660555825        8.2080879520
 H           30.4274496725       14.3050731746        8.5448934399
 H           32.1166545218       13.5215213823        9.5515817216
MG           36.5494157425       12.7666411235        9.6495200045
MG           39.3236482973       12.7384136431       12.0515549580
 O           37.2707841748        9.8867295646       16.3891230126
 H           37.9197361689        9.7006957267       15.6846787701
 H           37.2196536023       10.8653780361       16.4212488058
 O           29.9201280529       11.3856518602        7.3310470136
 H           30.6423166239       12.8335535162        7.9755833678
 H           30.2113983284       10.5413867918        7.7331590415
 H           28.9257217663       11.2915499078        7.2455368264

